Version 4
SHEET 1 880 680
WIRE -656 -256 -960 -256
WIRE -1008 -144 -1056 -144
WIRE -864 -144 -928 -144
WIRE -816 -144 -864 -144
WIRE -704 -144 -736 -144
WIRE -704 -80 -704 -144
WIRE 432 -80 144 -80
WIRE -960 -64 -960 -256
WIRE -864 -48 -864 -144
WIRE -864 -48 -928 -48
WIRE 272 -48 -192 -48
WIRE -1056 -32 -1056 -144
WIRE -1056 -32 -1168 -32
WIRE -992 -32 -1056 -32
WIRE -880 -16 -928 -16
WIRE -816 -16 -880 -16
WIRE -656 -16 -656 -256
WIRE -656 -16 -736 -16
WIRE 144 -16 144 -80
WIRE -656 16 -656 -16
WIRE -608 16 -656 16
WIRE -64 16 -352 16
WIRE -1168 32 -1168 -32
WIRE -880 48 -880 -16
WIRE -64 96 -64 16
WIRE 144 96 144 64
WIRE 144 96 16 96
WIRE 192 96 144 96
WIRE -480 144 -480 112
WIRE 272 144 272 -48
WIRE 192 160 192 96
WIRE 240 160 192 160
WIRE -1168 176 -1168 112
WIRE -960 176 -960 0
WIRE -960 176 -1168 176
WIRE -880 176 -880 128
WIRE -880 176 -960 176
WIRE 432 176 432 -80
WIRE 432 176 304 176
WIRE 608 176 432 176
WIRE 240 192 192 192
WIRE -960 208 -960 176
WIRE 608 224 608 176
WIRE -656 240 -656 16
WIRE -464 240 -656 240
WIRE -192 240 -192 -48
WIRE -192 240 -464 240
WIRE -80 240 -192 240
WIRE 128 240 0 240
WIRE 192 240 192 192
WIRE 192 240 128 240
WIRE -464 256 -464 240
WIRE 128 256 128 240
WIRE 272 336 272 208
WIRE 272 336 128 336
WIRE -464 352 -464 336
WIRE 608 384 608 304
WIRE 272 416 272 336
FLAG 272 416 0
FLAG -464 352 0
FLAG 608 384 0
FLAG -480 144 0
FLAG -960 208 0
FLAG -1168 -32 testout
FLAG -704 -80 0
FLAG -864 -144 mid
SYMBOL res 128 -32 R0
SYMATTR InstName R1
SYMATTR Value 500k
SYMBOL res 32 80 R90
WINDOW 0 0 56 VBottom 2
WINDOW 3 32 56 VTop 2
SYMATTR InstName R2
SYMATTR Value 500k
SYMBOL res 16 224 R90
WINDOW 0 0 56 VBottom 2
WINDOW 3 32 56 VTop 2
SYMATTR InstName R3
SYMATTR Value 760k
SYMBOL res 144 352 R180
WINDOW 0 36 76 Left 2
WINDOW 3 36 40 Left 2
SYMATTR InstName R4
SYMATTR Value 500k
SYMBOL OpAmps\\UniversalOpAmp1 272 176 R0
SYMATTR InstName U1
SYMBOL voltage -464 240 R0
WINDOW 123 0 0 Left 0
WINDOW 39 0 0 Left 0
SYMATTR InstName V2
SYMATTR Value 6
SYMBOL res 592 208 R0
SYMATTR InstName input_pin
SYMATTR Value 2000k
SYMBOL ZZZ\\VolReg\\7805 -480 16 R0
SYMATTR InstName U2
SYMBOL OpAmps\\UniversalOpAmp1 -960 -32 M0
SYMATTR InstName U4
SYMBOL res -832 0 R270
WINDOW 0 32 56 VTop 2
WINDOW 3 0 56 VBottom 2
SYMATTR InstName R5
SYMATTR Value 2.9R
SYMBOL res -896 32 R0
SYMATTR InstName R6
SYMATTR Value .01R
SYMBOL res -1184 16 R0
SYMATTR InstName R7
SYMATTR Value 200k
SYMBOL res -720 -160 R90
WINDOW 0 0 56 VBottom 2
WINDOW 3 32 56 VTop 2
SYMATTR InstName R8
SYMATTR Value 22
SYMBOL res -912 -160 R90
WINDOW 0 0 56 VBottom 2
WINDOW 3 32 56 VTop 2
SYMATTR InstName R9
SYMATTR Value 220
TEXT -512 440 Left 2 !.dc V2 5 5 .01
