Version 4
SHEET 1 880 680
WIRE 432 -80 144 -80
WIRE 272 -48 -192 -48
WIRE 144 -16 144 -80
WIRE -64 16 -480 16
WIRE -64 96 -64 16
WIRE 144 96 144 64
WIRE 144 96 16 96
WIRE 192 96 144 96
WIRE -480 112 -480 96
WIRE 272 144 272 -48
WIRE 192 160 192 96
WIRE 240 160 192 160
WIRE 432 176 432 -80
WIRE 432 176 304 176
WIRE 608 176 432 176
WIRE 240 192 192 192
WIRE 608 224 608 176
WIRE -192 240 -192 -48
WIRE -192 240 -464 240
WIRE -80 240 -192 240
WIRE 128 240 0 240
WIRE 192 240 192 192
WIRE 192 240 128 240
WIRE -464 256 -464 240
WIRE 128 256 128 240
WIRE 272 336 272 208
WIRE 272 336 128 336
WIRE -464 352 -464 336
WIRE 608 384 608 304
WIRE 272 416 272 336
FLAG 272 416 0
FLAG -480 112 0
FLAG -464 352 0
FLAG 608 384 0
SYMBOL res 128 -32 R0
SYMATTR InstName R1
SYMATTR Value 300k
SYMBOL res 32 80 R90
WINDOW 0 0 56 VBottom 2
WINDOW 3 32 56 VTop 2
SYMATTR InstName R2
SYMATTR Value 300k
SYMBOL res 16 224 R90
WINDOW 0 0 56 VBottom 2
WINDOW 3 32 56 VTop 2
SYMATTR InstName R3
SYMATTR Value 300k
SYMBOL res 144 352 R180
WINDOW 0 36 76 Left 2
WINDOW 3 36 40 Left 2
SYMATTR InstName R4
SYMATTR Value 300k
SYMBOL OpAmps\\UniversalOpAmp1 272 176 R0
SYMATTR InstName U1
SYMBOL voltage -480 0 R0
WINDOW 123 0 0 Left 0
WINDOW 39 0 0 Left 0
SYMATTR InstName V1
SYMATTR Value 5
SYMBOL voltage -464 240 R0
WINDOW 123 0 0 Left 0
WINDOW 39 0 0 Left 0
SYMATTR InstName V2
SYMATTR Value 8.4
SYMBOL res 592 208 R0
SYMATTR InstName input_pin
SYMATTR Value 2000k
TEXT -512 440 Left 2 !.dc V2 8.4 6.4 .01
